1
9
.tran 30n 5m 4.76m
3
1
/tran-input
V
1
in
V
1
qin
V
